Sistemas teste e codigos/ED_piorCaso/Sistemas/ieee24.cdf
 0 /0 /0        IEEE 24 Barras  100.0                                                                                         
BUS DATA FOLLOWS                       24 ITEMS                                                                               
   1  BARRA---1    1     2  1.035    -22      108        22     172   24.81     1.0             80     -50     0.0     0.0  0.0
   2  BARRA---2    1     2  1.035    -22       97        20     172    17.1     1.0             80     -50     0.0     0.0  0.0
   3  BARRA---3    1     0  1.000    -20      180        37     0.0     0.0     1.0            0.0     0.0     0.0     0.0  0.0
   4  BARRA---4    1     0  0.998    -24       74        15     0.0     0.0     1.0            0.0     0.0     0.0     0.0  0.0
   5  BARRA---5    1     0  1.017    -24       71        14     0.0     0.0     1.0            0.0     0.0     0.0     0.0  0.0
   6  BARRA---6    1     0  1.010    -27      136        28     0.0     0.0     1.0            0.0     0.0     0.0      -1  0.0
   7  BARRA---7    1     2  1.025    -21      125        25     240   53.09     1.0            180       0     0.0     0.0  0.0
   8  BARRA---8    1     0  0.992    -25      171        35     0.0     0.0     1.0            0.0     0.0     0.0     0.0  0.0
   9  BARRA---9    1     0  1.000    -22      175        36     0.0     0.0     1.0            0.0     0.0     0.0     0.0  0.0
  10  BARRA--10    1     0  1.000    -24      195        40     0.0     0.0     1.0            0.0     0.0     0.0     0.0  0.0
  11  BARRA--11    1     0  0.990    -16      0.0       0.0     0.0     0.0     1.0            0.0     0.0     0.0     0.0  0.0
  12  BARRA--12    1     0  1.003    -15      0.0       0.0     0.0     0.0     1.0            0.0     0.0     0.0     0.0  0.0
  13  BARRA--13    2     3  1.020    -13      265        54     0.0     0.0     1.0            240       0     0.0     0.0  0.0
  14  BARRA--14    2     2  0.980    -13      194        39       0   -36.5     1.0            200     -50     0.0     0.0  0.0
  15  BARRA--15    2     2  1.014   -4.8      317        64     215   -23.6     1.0            110     -50     0.0     0.0  0.0
  16  BARRA--16    2     2  1.017   -5.5      100        20     155   32.79     1.0             80     -50     0.0     0.0  0.0
  17  BARRA--17    2     0  1.039   -1.6      0.0       0.0     0.0     0.0     1.0            0.0     0.0     0.0     0.0  0.0
  18  BARRA--18    2     2  1.050  -0.56      333        68     400   134.4     1.0            200     -50     0.0     0.0  0.0
  19  BARRA--19    2     0  1.023   -6.4      181        37     0.0     0.0     1.0            0.0     0.0     0.0     0.0  0.0
  20  BARRA--20    2     0  1.038   -5.3      128        26     0.0     0.0     1.0            0.0     0.0     0.0     0.0  0.0
  21  BARRA--21    2     2  1.050      0      0.0       0.0     400   115.1     1.0            200     -50     0.0     0.0  0.0
  22  BARRA--22    2     2  1.050   5.87      0.0       0.0     300   -30.1     1.0             96     -60     0.0     0.0  0.0
  23  BARRA--23    2     2  1.050     -4      0.0       0.0     660     129     1.0            310    -125     0.0     0.0  0.0
  24  BARRA--24    2     0  0.984    -11      0.0       0.0     0.0     0.0     1.0            0.0     0.0     0.0     0.0  0.0
-999
BRANCH DATA FOLLOWS                    38 ITEMS                                                                               
   1    2              0.0026     0.0139    0.4611                             0.0     0.0                                    
   1    3              0.0546     0.2112    0.0572                             0.0     0.0                                    
   1    5              0.0218     0.0845    0.0229                             0.0     0.0                                    
   2    4              0.0328     0.1267    0.0343                             0.0     0.0                                    
   2    6              0.0497      0.192     0.052                             0.0     0.0                                    
   3    9              0.0308      0.119    0.0322                             0.0     0.0                                    
   3   24              0.0023     0.0839       0.0                           1.015     0.0                                    
   4    9              0.0268     0.1037    0.0281                             0.0     0.0                                    
   5   10              0.0228     0.0883    0.0239                             0.0     0.0                                    
   6   10              0.0139     0.0605     2.459                             0.0     0.0                                    
   7    8              0.0159     0.0614    0.0166                             0.0     0.0                                    
   8    9              0.0427     0.1651    0.0447                             0.0     0.0                                    
   8   10              0.0427     0.1651    0.0447                             0.0     0.0                                    
   9   11              0.0023     0.0839       0.0                            1.03     0.0                                    
   9   12              0.0023     0.0839       0.0                            1.03     0.0                                    
  10   11              0.0023     0.0839       0.0                           1.015     0.0                                    
  10   12              0.0023     0.0839       0.0                           1.015     0.0                                    
  11   13              0.0061     0.0476    0.0999                             0.0     0.0                                    
  11   14              0.0054     0.0418    0.0879                             0.0     0.0                                    
  12   13              0.0061     0.0476    0.0999                             0.0     0.0                                    
  12   23              0.0124     0.0966     0.203                             0.0     0.0                                    
  13   23              0.0111     0.0865    0.1818                             0.0     0.0                                    
  14   16               0.005     0.0389    0.0818                             0.0     0.0                                    
  15   16              0.0022     0.0173    0.0364                             0.0     0.0                                    
  15   21              0.0063      0.049     0.103                             0.0     0.0                                    
  15   21              0.0063      0.049     0.103                             0.0     0.0                                    
  15   24              0.0067     0.0519    0.1091                             0.0     0.0                                    
  16   17              0.0033     0.0259    0.0545                             0.0     0.0                                    
  16   19               0.003     0.0231    0.0485                             0.0     0.0                                    
  17   18              0.0018     0.0144    0.0303                             0.0     0.0                                    
  17   22              0.0135     0.1053    0.2212                             0.0     0.0                                    
  18   21              0.0033     0.0259    0.0545                             0.0     0.0                                    
  18   21              0.0033     0.0259    0.0545                             0.0     0.0                                    
  19   20              0.0051     0.0396    0.0833                             0.0     0.0                                    
  19   20              0.0051     0.0396    0.0833                             0.0     0.0                                    
  20   23              0.0028     0.0216    0.0455                             0.0     0.0                                    
  20   23              0.0028     0.0216    0.0455                             0.0     0.0                                    
  21   22              0.0087     0.0678    0.1424                             0.0     0.0                                    
-999
END OF DATA
